@<TRIPOS>MOLECULE
BNZ.pdb
 6 6 0 0 0
SMALL
GASTEIGER

@<TRIPOS>ATOM
      1 C          25.9780    5.3270    4.7790 C.ar    1  UNL1        0.0000
      2 C          26.3950    5.0740    3.4990 C.ar    1  UNL1        0.0000
      3 C          27.3400    5.8600    2.9020 C.ar    1  UNL1        0.0000
      4 C          27.8370    6.9210    3.5690 C.ar    1  UNL1        0.0000
      5 C          27.4200    7.1960    4.8560 C.ar    1  UNL1        0.0000
      6 C          26.4980    6.3790    5.4690 C.ar    1  UNL1        0.0000
@<TRIPOS>BOND
     1     1     2   ar
     2     1     6   ar
     3     2     3   ar
     4     3     4   ar
     5     4     5   ar
     6     5     6   ar
